11
IRC point 0
	    C     0.1613570530  -0.5112561469  -0.0656640845
	    C     0.1613570530  -0.5112561469   1.4101827372
	   CL     0.1613570530   1.6750822400  -0.8302766088
	    H     1.1324678904  -0.6975517345  -0.5090381314
	    C    -1.0408103966  -1.0167880843  -0.8145247749
	    O     0.3578207439  -1.8686774205   1.4060095925
	    H     0.9742043929   0.1035953371   1.8483868792
	    H    -0.8025927359  -0.1594008849   1.8386533007
	    H    -0.9476974468  -0.7992360053  -1.8825586165
	    H    -1.1324894223  -2.0982307363  -0.6681578279
	    H    -1.9511793478  -0.5312151357  -0.4438306443
11
IRC point -1
	    C     0.1604453815  -0.4864891179  -0.0680655053
	    C     0.1604377139  -0.4865187653   1.4144159588
	   CL     0.1604482014   1.6490038985  -0.8608770843
	    H     1.1312677112  -0.7024602318  -0.5007357324
	    C    -1.0373388203  -1.0296298994  -0.7995431062
	    O     0.3581850382  -1.8394398049   1.4565946382
	    H     0.9695167987   0.1439650279   1.8415933267
	    H    -0.8051097260  -0.1212742355   1.8325876762
	    H    -0.9487140568  -0.8486987169  -1.8749802498
	    H    -1.1154398123  -2.1058611652  -0.6140632350
	    H    -1.9524980267  -0.5423164090  -0.4425826035
11
IRC point -2
	    C     0.1596028598  -0.4625360234  -0.0719258191
	    C     0.1595955074  -0.4625688728   1.4175970273
	   CL     0.1595974793   1.6226500178  -0.8888256068
	    H     1.1298281078  -0.7060760386  -0.4935847158
	    C    -1.0338772262  -1.0411456883  -0.7854657634
	    O     0.3582699182  -1.8096790360   1.5043170237
	    H     0.9651822698   0.1827413398   1.8335368563
	    H    -0.8075373950  -0.0845190081   1.8253355726
	    H    -0.9494841870  -0.8964728425  -1.8669449146
	    H    -1.0985447231  -2.1107245546  -0.5615595156
	    H    -1.9536776879  -0.5525008910  -0.4418872412
11
IRC point -3
	    C     0.1588482449  -0.4394831319  -0.0771661243
	    C     0.1588410306  -0.4395127245   1.4196800923
	   CL     0.1588458315   1.5962325960  -0.9138753612
	    H     1.1282532492  -0.7084034262  -0.4876974944
	    C    -1.0304348969  -1.0512440599  -0.7725136571
	    O     0.3580121625  -1.7797749191   1.5487788980
	    H     0.9612676708   0.2196305757   1.8243822067
	    H    -0.8098259067  -0.0493030228   1.8170018731
	    H    -0.9499316311  -0.9422668144  -1.8587039353
	    H    -1.0819920907  -2.1128421609  -0.5111050266
	    H    -1.9547011624  -0.5615910664  -0.4419694762
11
IRC point -4
	    C     0.1582062265  -0.4175088840  -0.0837803615
	    C     0.1582089817  -0.4175424748   1.4205647689
	   CL     0.1582110850   1.5700799573  -0.9358073192
	    H     1.1264934805  -0.7098420348  -0.4833001491
	    C    -1.0270815148  -1.0598296701  -0.7608929981
	    O     0.3573557414  -1.7501494560   1.5897962185
	    H     0.9578598718   0.2543718459   1.8141389411
	    H    -0.8118792995  -0.0157356681   1.8075688508
	    H    -0.9501146008  -0.9856629180  -1.8505158332
	    H    -1.0661625594  -2.1123034554  -0.4632829605
	    H    -1.9555261361  -0.5693347455  -0.4429137537
11
IRC point -5
	    C     0.1577211932  -0.3968154578  -0.0917085375
	    C     0.1577212463  -0.3968134617   1.4202038482
	   CL     0.1577217521   1.5444629987  -0.9544400795
	    H     1.1247692120  -0.7107412292  -0.4803938972
	    C    -1.0238495432  -1.0669125224  -0.7508385621
	    O     0.3562345583  -1.7211803277   1.6272272567
	    H     0.9550294433   0.2867105433   1.8028395777
	    H    -0.8136690720   0.0160979856   1.7969982950
	    H    -0.9500193495  -1.0263658696  -1.8427053737
	    H    -1.0513197169  -2.1093447512  -0.4186360061
	    H    -1.9561271067  -0.5755827353  -0.4449539759
11
IRC point -6
	    C     0.1574310136  -0.3776129816  -0.1009251703
	    C     0.1574321170  -0.3776516939   1.4184319108
	   CL     0.1574382992   1.5198415501  -0.9693678865
	    H     1.1228826074  -0.7113392367  -0.4792556118
	    C    -1.0208718637  -1.0723153239  -0.7427098311
	    O     0.3545503816  -1.6934730663   1.6606810900
	    H     0.9529834878   0.3161815505   1.7905092998
	    H    -0.8149751407   0.0459841796   1.7853315814
	    H    -0.9497503445  -1.0637332924  -1.8357449026
	    H    -1.0379923241  -2.1041179071  -0.3780322423
	    H    -1.9565116628  -0.5799602301  -0.4483329290
11
IRC point -7
	    C     0.1573773130  -0.3602586432  -0.1113580855
	    C     0.1573748383  -0.3603150154   1.4151288338
	   CL     0.1574144028   1.4965985274  -0.9803081238
	    H     1.1211492089  -0.7121057442  -0.4800217482
	    C    -1.0181870030  -1.0760469603  -0.7368944455
	    O     0.3521714441  -1.6674889601   1.6899591097
	    H     0.9518145718   0.3423803111   1.7770112991
	    H    -0.8157828815   0.0738546145   1.7724013681
	    H    -0.9492272874  -1.0973079166  -1.8301763873
	    H    -1.0266441886  -2.0970283234  -0.3423024361
	    H    -1.9566135558  -0.5822201950  -0.4534484388
11
IRC point -8
	    C     0.1576632230  -0.3452267792  -0.1229330495
	    C     0.1576902339  -0.3453065157   1.4099785527
	   CL     0.1576763647   1.4754518775  -0.9865877387
	    H     1.1193904650  -0.7132977058  -0.4830149352
	    C    -1.0159612417  -1.0779347394  -0.7340051546
	    O     0.3490380673  -1.6440779539   1.7144907912
	    H     0.9519309157   0.3646607442   1.7622956427
	    H    -0.8156041997   0.0993421653   1.7582270312
	    H    -0.9485581957  -1.1261260259  -1.8268118820
	    H    -1.0180255562  -2.0884598456  -0.3128267328
	    H    -1.9564060069  -0.5818837354  -0.4607424622
11
IRC point -9
	    C     0.1583104264  -0.3333084588  -0.1355520280
	    C     0.1582207924  -0.3334762276   1.4027001776
	   CL     0.1583571774   1.4574004347  -0.9872371627
	    H     1.1180122607  -0.7152007476  -0.4887863794
	    C    -1.0142698069  -1.0778662784  -0.7351746086
	    O     0.3446144080  -1.6244214378   1.7335314260
	    H     0.9531513583   0.3816587827   1.7462625904
	    H    -0.8148036728   0.1219084432   1.7425151536
	    H    -0.9474107327  -1.1489036334  -1.8270414349
	    H    -1.0129962493  -2.0790970165  -0.2918286688
	    H    -1.9557884089  -0.5785420443  -0.4712750752
11
IRC point -10
	    C     0.1594699394  -0.3252534726  -0.1489602608
	    C     0.1595175449  -0.3252229340   1.3930144103
	   CL     0.1594395569   1.4437153838  -0.9819169861
	    H     1.1169551428  -0.7184677577  -0.4977003146
	    C    -1.0133400620  -1.0759232070  -0.7409126199
	    O     0.3392230942  -1.6092957605   1.7465014337
	    H     0.9569939765   0.3930638641   1.7285627328
	    H    -0.8116751224   0.1412853680   1.7255130283
	    H    -0.9462072574  -1.1642218396  -1.8317514090
	    H    -1.0122378260  -2.0699630529  -0.2811608671
	    H    -1.9547479970  -0.5721249105  -0.4848891608
11
IRC point -11
	    C     0.1611847471  -0.3218398439  -0.1629241808
	    C     0.1611500787  -0.3217361783   1.3811032200
	   CL     0.1613208590   1.4352434812  -0.9699040908
	    H     1.1164603492  -0.7234115718  -0.5093834933
	    C    -1.0125683732  -1.0729295955  -0.7525607995
	    O     0.3317989239  -1.6001625558   1.7534406026
	    H     0.9619587639   0.3967510947   1.7098179728
	    H    -0.8078987607   0.1570203387   1.7072570351
	    H    -0.9437097872  -1.1714503108  -1.8426188744
	    H    -1.0149005961  -2.0627517724  -0.2833236254
	    H    -1.9529967094  -0.5641707515  -0.5026955456
11
IRC point -12
	    C     0.1631988048  -0.3221954547  -0.1771166381
	    C     0.1632067554  -0.3221997424   1.3676671954
	   CL     0.1632191356   1.4321288698  -0.9529832034
	    H     1.1172430613  -0.7268709094  -0.5248374184
	    C    -1.0115988487  -1.0700067754  -0.7689758901
	    O     0.3225909906  -1.5958064530   1.7562334134
	    H     0.9697977623   0.3943037121   1.6898487309
	    H    -0.8016280369   0.1699515862   1.6883964260
	    H    -0.9403789117  -1.1716351195  -1.8587518549
	    H    -1.0185811317  -2.0587586455  -0.2971556014
	    H    -1.9508758489  -0.5574766453  -0.5225746469
11
IRC point -13
	    C     0.1658578595  -0.3248584099  -0.1911824735
	    C     0.1658509647  -0.3247532463   1.3540899936
	   CL     0.1659380054   1.4322832066  -0.9346908312
	    H     1.1188723848  -0.7308682357  -0.5412165108
	    C    -1.0092863356  -1.0684618082  -0.7880159197
	    O     0.3092292947  -1.5940921914   1.7582282006
	    H     0.9806880885   0.3860923337   1.6697798852
	    H    -0.7929221729   0.1841923309   1.6695772552
	    H    -0.9363905843  -1.1666708210  -1.8781059101
	    H    -1.0188983344  -2.0588842633  -0.3194300067
	    H    -1.9481777834  -0.5554959493  -0.5412137247
11
IRC point -14
	    C     0.1695391477  -0.3378605119  -0.1962296493
	    C     0.1697113896  -0.3377671016   1.3429885965
	   CL     0.1698588641   1.4444254978  -0.9099168572
	    H     1.1206501195  -0.7406340196  -0.5546008069
	    C    -1.0155567108  -1.0557971979  -0.8056368408
	    O     0.3005221016  -1.6119323078   1.7361162200
	    H     0.9914895005   0.3630411483   1.6621418332
	    H    -0.7837929037   0.1794504988   1.6606859236
	    H    -0.9421457681  -1.1311011606  -1.8974428093
	    H    -1.0455669225  -2.0560713744  -0.3599669259
	    H    -1.9449548055  -0.5301841019  -0.5502348462
11
IRC point -15
	    C     0.1643204662  -0.3144941588  -0.1991517506
	    C     0.1650854905  -0.3141858173   1.3526961553
	   CL     0.1650106029   1.4203241439  -0.9411987740
	    H     1.1181600311  -0.7251149798  -0.5427024743
	    C    -1.0015411784  -1.0786798939  -0.7877784739
	    O     0.3042262290  -1.5746853183   1.7807296812
	    H     0.9823696470   0.3994411544   1.6578684035
	    H    -0.7919077396   0.2041144330   1.6617239111
	    H    -0.9279818647  -1.1944251194  -1.8762729879
	    H    -0.9927526268  -2.0611630948  -0.3020161443
	    H    -1.9492794591  -0.5790407740  -0.5471334353
